2014MasterDissertation/redesCemigDissertacaoEzequielUfmg/SLAD214.m
function mpc = SLAD214

%% MATPOWER Case Format : Version 2
mpc.version = '2';

%%-----  Power Flow Data  -----%%
%% system MVA base
mpc.baseMVA = 100;

%% bus data
%	bus_i	type	Pd	Qd	Gs	Bs	area	Vm	Va	baseKV	zone	Vmax	Vmin
mpc.bus = [
	102916529	1	0	0	0	0	0	1	0	13.8	0	1.1	0.9;
	102921135	1	0	0	0	0	0	1	0	13.8	0	1.1	0.9;
	102921142	1	0	0	0	0	0	1	0	13.8	0	1.1	0.9;
	102921149	1	0	0	0	0	0	1	0	13.8	0	1.1	0.9;
	102921156	1	0.0156354921	0.00208811599	0	0	0	1	0	13.8	0	1.1	0.9;
	102921163	1	0	0	0	0	0	1	0	13.8	0	1.1	0.9;
	102921170	1	0	0	0	0	0	1	0	13.8	0	1.1	0.9;
	102921177	1	0.0150969842	0.00208811599	0	0	0	1	0	13.8	0	1.1	0.9;
	102921184	1	0	0	0	0	0	1	0	13.8	0	1.1	0.9;
	102921191	1	0.0151858641	0.00208811599	0	0	0	1	0	13.8	0	1.1	0.9;
	102921198	1	0.00969812606	0.00125286959	0	0	0	1	0	13.8	0	1.1	0.9;
	102921205	1	0	0	0	0	0	1	0	13.8	0	1.1	0.9;
	102921212	1	0	0	0	0	0	1	0	13.8	0	1.1	0.9;
	102921219	1	0.0154106781	0.00208811599	0	0	0	1	0	13.8	0	1.1	0.9;
	102921226	1	0	0	0	0	0	1	0	13.8	0	1.1	0.9;
	102921233	1	0.0085174023	0.00103013722	0	0	0	1	0	13.8	0	1.1	0.9;
	102921240	1	0.00606807178	0.000835246396	0	0	0	1	0	13.8	0	1.1	0.9;
	102921247	1	0.00550983988	0.000696038663	0	0	0	1	0	13.8	0	1.1	0.9;
	102921254	1	0.00878841377	0.00125286959	0	0	0	1	0	13.8	0	1.1	0.9;
	102921261	1	0.0146473563	0.00208811599	0	0	0	1	0	13.8	0	1.1	0.9;
	102921268	1	0	0	0	0	0	1	0	13.8	0	1.1	0.9;
	102921275	1	0	0	0	0	0	1	0	13.8	0	1.1	0.9;
	102921282	1	0	0	0	0	0	1	0	13.8	0	1.1	0.9;
	102921289	1	0.00640790683	0.000835246396	0	0	0	1	0	13.8	0	1.1	0.9;
	102921296	1	0.00932169339	0.00125286959	0	0	0	1	0	13.8	0	1.1	0.9;
	102921303	1	0	0	0	0	0	1	0	13.8	0	1.1	0.9;
	102921310	1	0.00688890413	0.000835246396	0	0	0	1	0	13.8	0	1.1	0.9;
	102921317	1	0	0	0	0	0	1	0	13.8	0	1.1	0.9;
	102921324	1	0.00599606542	0.000696038663	0	0	0	1	0	13.8	0	1.1	0.9;
	102921331	1	0	0	0	0	0	1	0	13.8	0	1.1	0.9;
	102921338	1	0	0	0	0	0	1	0	13.8	0	1.1	0.9;
	102921345	1	0.00811482847	0.00103013722	0	0	0	1	0	13.8	0	1.1	0.9;
	102921352	1	0.00544187287	0.000696038663	0	0	0	1	0	13.8	0	1.1	0.9;
	102921359	1	0	0	0	0	0	1	0	13.8	0	1.1	0.9;
	102921366	1	0.00774885226	0.00103013722	0	0	0	1	0	13.8	0	1.1	0.9;
	102921373	1	0.00577125146	0.000696038663	0	0	0	1	0	13.8	0	1.1	0.9;
	102921380	1	0	0	0	0	0	1	0	13.8	0	1.1	0.9;
	102921387	1	0.00811482847	0.00103013722	0	0	0	1	0	13.8	0	1.1	0.9;
	102921394	1	0.00566668683	0.000696038663	0	0	0	1	0	13.8	0	1.1	0.9;
	102929780	3	0	0	0	0	0	1	0	13.8	0	1.1	0.9;
	102929787	1	0	0	0	0	0	1	0	13.8	0	1.1	0.9;
	102929836	1	0	0	0	0	0	1	0	13.8	0	1.1	0.9;
	102929843	1	0	0	0	0	0	1	0	13.8	0	1.1	0.9;
	102929864	1	0	0	0	0	0	1	0	13.8	0	1.1	0.9;
	102929878	1	0	0	0	0	0	1	0	13.8	0	1.1	0.9;
	102929885	1	0	0	0	0	0	1	0	13.8	0	1.1	0.9;
	102929906	1	0	0	0	0	0	1	0	13.8	0	1.1	0.9;
	102929983	1	0	0	0	0	0	1	0	13.8	0	1.1	0.9;
	102930025	1	0	0	0	0	0	1	0	13.8	0	1.1	0.9;
	102930032	1	0.0626473563	0.00688811599	0	0	0	1	0	13.8	0	1.1	0.9;
	102930081	1	0	0	0	0	0	1	0	13.8	0	1.1	0.9;
	102930095	1	0	0	0	0	0	1	0	13.8	0	1.1	0.9;
	102930102	1	0	0	0	0	0	1	0	13.8	0	1.1	0.9;
	102930109	1	0.00292947126	0.000417623198	0	0	0	1	0	13.8	0	1.1	0.9;
	102930116	1	0	0	0	0	0	1	0	13.8	0	1.1	0.9;
	102930123	1	0.000976490419	0.000139207733	0	0	0	1	0	13.8	0	1.1	0.9;
	102930130	1	0	0	0	0	0	1	0	13.8	0	1.1	0.9;
	102930137	1	0	0	0	0	0	1	0	13.8	0	1.1	0.9;
	102930144	1	0	0	0	0	0	1	0	13.8	0	1.1	0.9;
	102930158	1	0	0	0	0	0	1	0	13.8	0	1.1	0.9;
	102930172	1	0	0	0	0	0	1	0	13.8	0	1.1	0.9;
	102930179	1	0	0	0	0	0	1	0	13.8	0	1.1	0.9;
	102930186	1	0	0	0	0	0	1	0	13.8	0	1.1	0.9;
	102930193	1	0	0	0	0	0	1	0	13.8	0	1.1	0.9;
	102930200	1	0	0	0	0	0	1	0	13.8	0	1.1	0.9;
	102930207	1	0.0090079995	0.00125286959	0	0	0	1	0	13.8	0	1.1	0.9;
	102930214	1	0.00329544747	0.000417623198	0	0	0	1	0	13.8	0	1.1	0.9;
	102930221	1	0	0	0	0	0	1	0	13.8	0	1.1	0.9;
	102930228	1	0	0	0	0	0	1	0	13.8	0	1.1	0.9;
	102930235	1	0	0	0	0	0	1	0	13.8	0	1.1	0.9;
	102930242	1	0	0	0	0	0	1	0	13.8	0	1.1	0.9;
	102930249	1	0	0	0	0	0	1	0	13.8	0	1.1	0.9;
	102930256	1	0.0150133325	0.00208811599	0	0	0	1	0	13.8	0	1.1	0.9;
	102930263	1	0	0	0	0	0	1	0	13.8	0	1.1	0.9;
	102930270	1	0	0	0	0	0	1	0	13.8	0	1.1	0.9;
	102930277	1	0	0	0	0	0	1	0	13.8	0	1.1	0.9;
	102930284	1	0	0	0	0	0	1	0	13.8	0	1.1	0.9;
	102930291	1	0.0154106781	0.00208811599	0	0	0	1	0	13.8	0	1.1	0.9;
	102930298	1	0	0	0	0	0	1	0	13.8	0	1.1	0.9;
	102930305	1	0	0	0	0	0	1	0	13.8	0	1.1	0.9;
	102930312	1	0.000976490419	0.000139207733	0	0	0	1	0	13.8	0	1.1	0.9;
	102930319	1	0	0	0	0	0	1	0	13.8	0	1.1	0.9;
	102930326	1	0	0	0	0	0	1	0	13.8	0	1.1	0.9;
	102930333	1	0	0	0	0	0	1	0	13.8	0	1.1	0.9;
	102930340	1	0.00622491872	0.000835246396	0	0	0	1	0	13.8	0	1.1	0.9;
	102930347	1	0.00919621583	0.00125286959	0	0	0	1	0	13.8	0	1.1	0.9;
	102930354	1	0.00915438998	0.00125286959	0	0	0	1	0	13.8	0	1.1	0.9;
	102930361	1	0.00926418284	0.00125286959	0	0	0	1	0	13.8	0	1.1	0.9;
	102930368	1	0.00937397571	0.00125286959	0	0	0	1	0	13.8	0	1.1	0.9;
	102930396	1	0	0	0	0	0	1	0	13.8	0	1.1	0.9;
	102930445	1	0	0	0	0	0	1	0	13.8	0	1.1	0.9;
	102930452	1	0	0	0	0	0	1	0	13.8	0	1.1	0.9;
	102930459	1	0	0	0	0	0	1	0	13.8	0	1.1	0.9;
	102930466	1	0.0149924196	0.00208811599	0	0	0	1	0	13.8	0	1.1	0.9;
	102930473	1	0.00905505358	0.00125286959	0	0	0	1	0	13.8	0	1.1	0.9;
	102930480	1	0.00897140188	0.00125286959	0	0	0	1	0	13.8	0	1.1	0.9;
	102930487	1	0	0	0	0	0	1	0	13.8	0	1.1	0.9;
	102930494	1	0	0	0	0	0	1	0	13.8	0	1.1	0.9;
	102930501	1	0	0	0	0	0	1	0	13.8	0	1.1	0.9;
	102930508	1	0	0	0	0	0	1	0	13.8	0	1.1	0.9;
	102930536	1	0	0	0	0	0	1	0	13.8	0	1.1	0.9;
	102930550	1	0	0	0	0	0	1	0	13.8	0	1.1	0.9;
	102930557	1	0	0	0	0	0	1	0	13.8	0	1.1	0.9;
	102930585	1	0	0	0	0	0	1	0	13.8	0	1.1	0.9;
	102930620	1	0	0	0	0	0	1	0	13.8	0	1.1	0.9;
	102930676	1	0	0	0	0	0	1	0	13.8	0	1.1	0.9;
	102930690	1	0	0	0	0	0	1	0	13.8	0	1.1	0.9;
	102930704	1	0	0	0	0	0	1	0	13.8	0	1.1	0.9;
	102930711	1	0	0	0	0	0	1	0	13.8	0	1.1	0.9;
	102930718	1	0.00292947126	0.000417623198	0	0	0	1	0	13.8	0	1.1	0.9;
	102930760	1	0	0	0	0	0	1	0	13.8	0	1.1	0.9;
	102930788	1	0	0	0	0	0	1	0	13.8	0	1.1	0.9;
	102930830	1	0	0	0	0	0	1	0	13.8	0	1.1	0.9;
	102930837	1	0	0	0	0	0	1	0	13.8	0	1.1	0.9;
	102930844	1	0	0	0	0	0	1	0	13.8	0	1.1	0.9;
	102930851	1	0	0	0	0	0	1	0	13.8	0	1.1	0.9;
	102930858	1	0	0	0	0	0	1	0	13.8	0	1.1	0.9;
	102930865	1	0.0072260291	0.00103013722	0	0	0	1	0	13.8	0	1.1	0.9;
	102930872	1	0.00878841377	0.00125286959	0	0	0	1	0	13.8	0	1.1	0.9;
	102930879	1	0.000976490419	0.000139207733	0	0	0	1	0	13.8	0	1.1	0.9;
	102930886	1	0	0	0	0	0	1	0	13.8	0	1.1	0.9;
	102930893	1	0	0	0	0	0	1	0	13.8	0	1.1	0.9;
	102930900	1	0.00195298084	0.000278415465	0	0	0	1	0	13.8	0	1.1	0.9;
	102930907	1	0	0	0	0	0	1	0	13.8	0	1.1	0.9;
	102930914	1	0	0	0	0	0	1	0	13.8	0	1.1	0.9;
	102930921	1	0.00585894251	0.000835246396	0	0	0	1	0	13.8	0	1.1	0.9;
	102930928	1	0.000976490419	0.000139207733	0	0	0	1	0	13.8	0	1.1	0.9;
	102930935	1	0	0	0	0	0	1	0	13.8	0	1.1	0.9;
	102930942	1	0	0	0	0	0	1	0	13.8	0	1.1	0.9;
	102930949	1	0.00195298084	0.000278415465	0	0	0	1	0	13.8	0	1.1	0.9;
	102930956	1	0.0072260291	0.00103013722	0	0	0	1	0	13.8	0	1.1	0.9;
	102930963	1	0	0	0	0	0	1	0	13.8	0	1.1	0.9;
	102930970	1	0	0	0	0	0	1	0	13.8	0	1.1	0.9;
	102930977	1	0.00292947126	0.000417623198	0	0	0	1	0	13.8	0	1.1	0.9;
	102930984	1	0.00585894251	0.000835246396	0	0	0	1	0	13.8	0	1.1	0.9;
	102930991	1	0	0	0	0	0	1	0	13.8	0	1.1	0.9;
	102930998	1	0	0	0	0	0	1	0	13.8	0	1.1	0.9;
	102931005	1	0	0	0	0	0	1	0	13.8	0	1.1	0.9;
	102931012	1	0	0	0	0	0	1	0	13.8	0	1.1	0.9;
	102931019	1	0	0	0	0	0	1	0	13.8	0	1.1	0.9;
	102931026	1	0.00292947126	0.000417623198	0	0	0	1	0	13.8	0	1.1	0.9;
	102931033	1	0.00292947126	0.000417623198	0	0	0	1	0	13.8	0	1.1	0.9;
	102931040	1	0.00292947126	0.000417623198	0	0	0	1	0	13.8	0	1.1	0.9;
	102931047	1	0	0	0	0	0	1	0	13.8	0	1.1	0.9;
	102931054	1	0	0	0	0	0	1	0	13.8	0	1.1	0.9;
	102931061	1	0.00195298084	0.000278415465	0	0	0	1	0	13.8	0	1.1	0.9;
	102931068	1	0.00292947126	0.000417623198	0	0	0	1	0	13.8	0	1.1	0.9;
	102931075	1	0	0	0	0	0	1	0	13.8	0	1.1	0.9;
	102931082	1	0.169884138	0.0207286959	0	0	0	1	0	13.8	0	1.1	0.9;
	102931096	1	0	0	0	0	0	1	0	13.8	0	1.1	0.9;
	102931229	1	0	0	0	0	0	1	0	13.8	0	1.1	0.9;
	102931236	1	0.0159073601	0.00208811599	0	0	0	1	0	13.8	0	1.1	0.9;
	102931243	1	0	0	0	0	0	1	0	13.8	0	1.1	0.9;
	102931250	1	0	0	0	0	0	1	0	13.8	0	1.1	0.9;
	102931257	1	0	0	0	0	0	1	0	13.8	0	1.1	0.9;
	102931264	1	0	0	0	0	0	1	0	13.8	0	1.1	0.9;
	102931271	1	0.00318042637	0.000417623198	0	0	0	1	0	13.8	0	1.1	0.9;
	102931278	1	0.00357777197	0.000417623198	0	0	0	1	0	13.8	0	1.1	0.9;
	102931285	1	0.00585894251	0.000835246396	0	0	0	1	0	13.8	0	1.1	0.9;
	102931292	1	0.00318042637	0.000417623198	0	0	0	1	0	13.8	0	1.1	0.9;
	102931299	1	0.00525365654	0.000696038663	0	0	0	1	0	13.8	0	1.1	0.9;
	102931313	1	0	0	0	0	0	1	0	13.8	0	1.1	0.9;
	102931369	1	0	0	0	0	0	1	0	13.8	0	1.1	0.9;
	102931404	1	0	0	0	0	0	1	0	13.8	0	1.1	0.9;
	102931411	1	0.0155649109	0.00208811599	0	0	0	1	0	13.8	0	1.1	0.9;
	102931418	1	0.00554120927	0.000696038663	0	0	0	1	0	13.8	0	1.1	0.9;
	102931425	1	0	0	0	0	0	1	0	13.8	0	1.1	0.9;
	102931432	1	0.00622491872	0.000835246396	0	0	0	1	0	13.8	0	1.1	0.9;
	102931439	1	0.00664840548	0.000835246396	0	0	0	1	0	13.8	0	1.1	0.9;
	102931446	1	0	0	0	0	0	1	0	13.8	0	1.1	0.9;
	102931453	1	0	0	0	0	0	1	0	13.8	0	1.1	0.9;
	102931474	1	0	0	0	0	0	1	0	13.8	0	1.1	0.9;
	102931495	1	0	0	0	0	0	1	0	13.8	0	1.1	0.9;
	102931502	1	0	0	0	0	0	1	0	13.8	0	1.1	0.9;
	102931509	1	0	0	0	0	0	1	0	13.8	0	1.1	0.9;
	102931516	1	0	0	0	0	0	1	0	13.8	0	1.1	0.9;
	102931523	1	0.00585894251	0.000835246396	0	0	0	1	0	13.8	0	1.1	0.9;
	102931530	1	0	0	0	0	0	1	0	13.8	0	1.1	0.9;
	102931537	1	0.00315428521	0.000417623198	0	0	0	1	0	13.8	0	1.1	0.9;
	102931544	1	0	0	0	0	0	1	0	13.8	0	1.1	0.9;
	102931551	1	0	0	0	0	0	1	0	13.8	0	1.1	0.9;
	102931558	1	0.000976490419	0.000139207733	0	0	0	1	0	13.8	0	1.1	0.9;
	102931565	1	0	0	0	0	0	1	0	13.8	0	1.1	0.9;
	102931572	1	0	0	0	0	0	1	0	13.8	0	1.1	0.9;
	102931579	1	0	0	0	0	0	1	0	13.8	0	1.1	0.9;
	102931586	1	0.00246534753	0.000278415465	0	0	0	1	0	13.8	0	1.1	0.9;
	102931593	1	0	0	0	0	0	1	0	13.8	0	1.1	0.9;
	102931600	1	0.0031856546	0.000417623198	0	0	0	1	0	13.8	0	1.1	0.9;
	102931607	1	0	0	0	0	0	1	0	13.8	0	1.1	0.9;
	102931614	1	0	0	0	0	0	1	0	13.8	0	1.1	0.9;
	102931621	1	0	0	0	0	0	1	0	13.8	0	1.1	0.9;
	102931628	1	0	0	0	0	0	1	0	13.8	0	1.1	0.9;
	102931635	1	0	0	0	0	0	1	0	13.8	0	1.1	0.9;
	102931642	1	0.00585894251	0.000835246396	0	0	0	1	0	13.8	0	1.1	0.9;
	102931649	1	0	0	0	0	0	1	0	13.8	0	1.1	0.9;
	102931656	1	0	0	0	0	0	1	0	13.8	0	1.1	0.9;
	102931796	1	0	0	0	0	0	1	0	13.8	0	1.1	0.9;
	102931810	1	0	0	0	0	0	1	0	13.8	0	1.1	0.9;
	102931817	1	0	0	0	0	0	1	0	13.8	0	1.1	0.9;
	102931824	1	0	0	0	0	0	1	0	13.8	0	1.1	0.9;
...
];

%% generator data
%	bus	Pg	Qg	Qmax	Qmin	Vg	mBase	status	Pmax	Pmin	Pc1	Pc2	Qc1min	Qc1max	Qc2min	Qc2max	ramp_agc	ramp_10	ramp_30	ramp_q	apf
mpc.gen = [
	102929780	5	0	2.5	-2.5	1	100	1	10	5	0	0	0	0	0	0	0	0	0	0	0;
];

%% branch data
%	fbus	tbus	r	x	b	rateA	rateB	rateC	ratio	angle	status	angmin	angmax
mpc.branch = [
	102921184	102921191	0.127283085	0.0854943009	-2.62549884e-07	0.001656	0.002484	0.0027738	1	0	1	-360	360;
	102921198	102921205	0.00826774299	0.00555332949	-2.62549884e-07	0.001656	0.002484	0.0027738	1	0	1	-360	360;
	102921135	102916529	2.62549884e-05	2.62549884e-05	-2.62549884e-07	6	8	10	1	0	1	-360	360;
	2810669	102921149	2.62549884e-05	2.62549884e-05	-2.62549884e-07	6	8	10	1	0	1	-360	360;
	102921226	102921233	0.17709358	0.198079356	-2.62549884e-07	0.0006624	0.0013662	0.0015318	1	0	1	-360	360;
	102921233	102921240	0.158958578	0.177795338	-2.62549884e-07	0.0006624	0.0013662	0.0015318	1	0	1	-360	360;
	102921310	102921317	0.0473162324	0.0529232558	-2.62549884e-07	0.0006624	0.0013662	0.0015318	1	0	1	-360	360;
	102921338	102921352	0.149102613	0.16677143	-2.62549884e-07	0.0006624	0.0013662	0.0015318	1	0	1	-360	360;
	102930102	102930116	0.244477015	0.444023119	-2.62549884e-07	0.0035742	0.0053544	0.0059616	1	0	1	-360	360;
	102930207	2810669	0.0170509018	0.0215546105	-2.62549884e-07	0.0025944	0.0038916	0.0043332	1	0	1	-360	360;
	102930228	102930235	0.00835530266	0.00883245846	-2.62549884e-07	0.0037812	0.005658	0.0062928	1	0	1	-360	360;
	102930263	102930277	0.011833937	0.00487825806	-2.62549884e-07	0.001863	0.0028014	0.003105	1	0	1	-360	360;
	102930263	102930270	0.0179398494	0.0189643609	-2.62549884e-07	0.0037812	0.005658	0.0062928	1	0	1	-360	360;
	102930858	102930879	0.0138505566	0.00609178744	-2.62549884e-07	0.0012282	0.0018492	0.0020562	1	0	1	-360	360;
	102930893	102930900	0.399801437	0.121717922	-2.62549884e-07	0.0009246	0.00138	0.0015456	1	0	1	-360	360;
	102930886	102930907	2.62549884e-05	2.62549884e-05	-2.62549884e-07	6	8	10	1	0	1	-360	360;
	102930844	102930963	2.62549884e-05	2.62549884e-05	-2.62549884e-07	6	8	10	1	0	1	-360	360;
	102931005	102931047	2.62549884e-05	2.62549884e-05	-2.62549884e-07	6	8	10	1	0	1	-360	360;
	102931229	102931236	0.0911169601	0.0375607918	-2.62549884e-07	0.001863	0.0028014	0.003105	1	0	1	-360	360;
	102931551	102931558	0.0705609468	0.0310342971	-2.62549884e-07	0.0012282	0.0018492	0.0020562	1	0	1	-360	360;
	102931572	102931579	0.028773399	0.0399576555	-2.62549884e-07	0.002622	0.0039468	0.0043884	1	0	1	-360	360;
	102931635	102931656	0.0128268746	0.0178126969	-2.62549884e-07	0.002622	0.0039468	0.0043884	1	0	1	-360	360;
	102932118	102932125	0.155637757	0.174080996	-2.62549884e-07	0.0006624	0.0013662	0.0015318	1	0	1	-360	360;
	102932202	102932209	0.0581951432	0.0255955376	-2.62549884e-07	0.0012282	0.0018492	0.0020562	1	0	1	-360	360;
	102932342	102932349	0.0361931878	0.015918581	-2.62549884e-07	0.0012282	0.0018492	0.0020562	1	0	1	-360	360;
	102932811	102932825	2.62549884e-05	2.62549884e-05	-2.62549884e-07	6	8	10	1	0	1	-360	360;
	102933350	102933357	0.136414862	0.0562337706	-2.62549884e-07	0.001863	0.0028014	0.003105	1	0	1	-360	360;
	102933476	102933483	0.115623743	0.0508539323	-2.62549884e-07	0.0012282	0.0018492	0.0020562	1	0	1	-360	360;
	102933483	102933490	0.0972407466	0.0427686753	-2.62549884e-07	0.0012282	0.0018492	0.0020562	1	0	1	-360	360;
	102933630	102933637	0.0663000734	0.0291602689	-2.62549884e-07	0.0012282	0.0018492	0.0020562	1	0	1	-360	360;
	102933784	102933812	0.00152640779	0.00116875871	-2.62549884e-07	0.0016698	0.0025116	0.0028014	1	0	1	-360	360;
	102933868	102933882	0.0299833013	0.0229579832	-2.62549884e-07	0.0016698	0.0025116	0.0028014	1	0	1	-360	360;
	102933910	102933938	0.0430312715	0.0189261245	-2.62549884e-07	0.0012282	0.0018492	0.0020562	1	0	1	-360	360;
	102933924	102933945	0.356366616	0.272867177	-2.62549884e-07	0.0016698	0.0025116	0.0028014	1	0	1	-360	360;
	102934414	102934421	0.0601151042	0.0672388074	-2.62549884e-07	0.0006624	0.0013662	0.0015318	1	0	1	-360	360;
	102934428	102934435	1.10966473	0.337832916	-2.62549884e-07	0.0009246	0.00138	0.0015456	1	0	1	-360	360;
	102934106	102934547	2.62549884e-05	2.62549884e-05	-2.62549884e-07	6	8	10	1	0	1	-360	360;
	102948015	102948022	0.0836018747	0.0254522509	-2.62549884e-07	0.0009246	0.00138	0.0015456	1	0	1	-360	360;
	102921142	102921156	0.01067536	0.00717049276	-2.62549884e-07	0.001656	0.002484	0.0027738	1	0	1	-360	360;
	102921156	102921163	0.121110984	0.0813485856	-2.62549884e-07	0.001656	0.002484	0.0027738	1	0	1	-360	360;
	102921163	102921170	0.0118730525	0.00797496643	-2.62549884e-07	0.001656	0.002484	0.0027738	1	0	1	-360	360;
	102921170	102921219	0.0899080812	0.100562284	-2.62549884e-07	0.0006624	0.0013662	0.0015318	1	0	1	-360	360;
	102921247	102921254	0.0504370272	0.0207914605	-2.62549884e-07	0.001863	0.0028014	0.003105	1	0	1	-360	360;
	102921268	102921275	0.0619072372	0.0692433101	-2.62549884e-07	0.0006624	0.0013662	0.0015318	1	0	1	-360	360;
	102921275	102921282	0.0610663319	0.0683027567	-2.62549884e-07	0.0006624	0.0013662	0.0015318	1	0	1	-360	360;
	102921338	102921345	0.0880793856	0.0985168857	-2.62549884e-07	0.0006624	0.0013662	0.0015318	1	0	1	-360	360;
	102930214	102930221	0.00544337101	0.00688114583	-2.62549884e-07	0.0025944	0.0038916	0.0043332	1	0	1	-360	360;
	102930235	102930242	0.0123935917	0.0131013667	-2.62549884e-07	0.0037812	0.005658	0.0062928	1	0	1	-360	360;
	102930249	102930319	2.62549884e-05	2.62549884e-05	-2.62549884e-07	6	8	10	1	0	1	-360	360;
	102930452	102930459	0.0317693617	0.0355340646	-2.62549884e-07	0.0006624	0.0013662	0.0015318	1	0	1	-360	360;
	102930970	102930984	0.243833722	0.0742341856	-2.62549884e-07	0.0009246	0.00138	0.0015456	1	0	1	-360	360;
	102931250	102931299	0.114673908	0.128262887	-2.62549884e-07	0.0006624	0.0013662	0.0015318	1	0	1	-360	360;
	102931509	102931516	0.015892379	0.00698982703	-2.62549884e-07	0.0012282	0.0018492	0.0020562	1	0	1	-360	360;
	102931537	102931544	0.164557877	0.0723762688	-2.62549884e-07	0.0012282	0.0018492	0.0020562	1	0	1	-360	360;
	102931544	102931551	0.0321796161	0.0141533215	-2.62549884e-07	0.0012282	0.0018492	0.0020562	1	0	1	-360	360;
	102931614	102931621	0.00459470736	0.00485710255	-2.62549884e-07	0.0037812	0.005658	0.0062928	1	0	1	-360	360;
	102931628	102931642	0.0637076053	0.0712570237	-2.62549884e-07	0.0006624	0.0013662	0.0015318	1	0	1	-360	360;
	102932153	102932160	0.0120774563	0.0053119379	-2.62549884e-07	0.0012282	0.0018492	0.0020562	1	0	1	-360	360;
	102932195	102932202	0.0664235991	0.0292145982	-2.62549884e-07	0.0012282	0.0018492	0.0020562	1	0	1	-360	360;
	102932230	102932244	0.207358577	0.0631294758	-2.62549884e-07	0.0009246	0.00138	0.0015456	1	0	1	-360	360;
	102932237	102932258	0.176320469	0.0536800502	-2.62549884e-07	0.0009246	0.00138	0.0015456	1	0	1	-360	360;
	102932237	102932251	0.416210887	0.126713713	-2.62549884e-07	0.0009246	0.00138	0.0015456	1	0	1	-360	360;
	102932398	102932405	0.458103707	0.139467811	-2.62549884e-07	0.0009246	0.00138	0.0015456	1	0	1	-360	360;
	102932622	102932657	0.0794555191	0.0241899098	-2.62549884e-07	0.0009246	0.00138	0.0015456	1	0	1	-360	360;
	102933091	102933098	0.00602818608	0.00762042995	-2.62549884e-07	0.0025944	0.0038916	0.0043332	1	0	1	-360	360;
	102933364	102933378	0.102600789	0.042294726	-2.62549884e-07	0.001863	0.0028014	0.003105	1	0	1	-360	360;
	102933420	102933427	0.0316774375	0.0139324521	-2.62549884e-07	0.0012282	0.0018492	0.0020562	1	0	1	-360	360;
	102933455	102933462	0.02402533	0.0105668824	-2.62549884e-07	0.0012282	0.0018492	0.0020562	1	0	1	-360	360;
	102933602	102933616	0.122808677	0.0540140283	-2.62549884e-07	0.0012282	0.0018492	0.0020562	1	0	1	-360	360;
	102933819	102933826	0.0512965057	0.0392773398	-2.62549884e-07	0.0016698	0.0025116	0.0028014	1	0	1	-360	360;
	102933826	102933833	0.784080846	0.600364672	-2.62549884e-07	0.0016698	0.0025116	0.0028014	1	0	1	-360	360;
	102933833	102933847	0.097918667	0.0749755701	-2.62549884e-07	0.0016698	0.0025116	0.0028014	1	0	1	-360	360;
	102933945	102933952	0.050079278	0.0383453179	-2.62549884e-07	0.0016698	0.0025116	0.0028014	1	0	1	-360	360;
	102934309	102934316	2.62549884e-05	2.62549884e-05	-2.62549884e-07	6	8	10	1	0	1	-360	360;
	102934344	102934365	0.327570861	0.0997276171	-2.62549884e-07	0.0009246	0.00138	0.0015456	1	0	1	-360	360;
	102934400	102934407	0.331530395	0.100933081	-2.62549884e-07	0.0009246	0.00138	0.0015456	1	0	1	-360	360;
	102948148	102948253	0.0268267808	0.0117990238	-2.62549884e-07	0.0012282	0.0018492	0.0020562	1	0	1	-360	360;
	102921191	102921198	0.063076926	0.0423679054	-2.62549884e-07	0.001656	0.002484	0.0027738	1	0	1	-360	360;
	102921212	102921226	2.62549884e-05	2.62549884e-05	-2.62549884e-07	6	8	10	1	0	1	-360	360;
	102921282	102921296	0.0551107123	0.0616413899	-2.62549884e-07	0.0006624	0.0013662	0.0015318	1	0	1	-360	360;
	102921317	102921331	2.62549884e-05	2.62549884e-05	-2.62549884e-07	6	8	10	1	0	1	-360	360;
	2809717	102930123	0.00986573201	0.012471599	-2.62549884e-07	0.0025944	0.0038916	0.0043332	1	0	1	-360	360;
	102930130	102930137	2.62549884e-05	2.62549884e-05	-2.62549884e-07	6	8	10	1	0	1	-360	360;
	102930193	102930207	0.00616572806	0.00779430133	-2.62549884e-07	0.0025944	0.0038916	0.0043332	1	0	1	-360	360;
	102930193	102930200	0.0025300712	0.00319834692	-2.62549884e-07	0.0025944	0.0038916	0.0043332	1	0	1	-360	360;
	102930221	102930228	2.62549884e-05	2.62549884e-05	-2.62549884e-07	6	8	10	1	0	1	-360	360;
	102930242	102930249	0.00994427773	0.00409929112	-2.62549884e-07	0.001863	0.0028014	0.003105	1	0	1	-360	360;
	102930256	102930263	0.00771097974	0.00815133946	-2.62549884e-07	0.0037812	0.005658	0.0062928	1	0	1	-360	360;
	102930291	102930298	0.0187301732	0.0197998185	-2.62549884e-07	0.0037812	0.005658	0.0062928	1	0	1	-360	360;
	102930459	102930466	0.0833663348	0.0932453334	-2.62549884e-07	0.0006624	0.0013662	0.0015318	1	0	1	-360	360;
	102930690	102930704	2.62549884e-05	2.62549884e-05	-2.62549884e-07	6	8	10	1	0	1	-360	360;
	102930844	102930851	0.279367762	0.0850523796	-2.62549884e-07	0.0009246	0.00138	0.0015456	1	0	1	-360	360;
	102930942	102930956	0.298857238	0.0909858712	-2.62549884e-07	0.0009246	0.00138	0.0015456	1	0	1	-360	360;
	102931019	102931040	0.775764525	0.236178356	-2.62549884e-07	0.0009246	0.00138	0.0015456	1	0	1	-360	360;
	102931243	102931264	0.0284114062	0.011711924	-2.62549884e-07	0.001863	0.0028014	0.003105	1	0	1	-360	360;
	102931243	102931250	0.023128613	0.0101724861	-2.62549884e-07	0.0012282	0.0018492	0.0020562	1	0	1	-360	360;
	102931264	102931278	0.0167275516	0.00735715478	-2.62549884e-07	0.0012282	0.0018492	0.0020562	1	0	1	-360	360;
	102931404	102931411	0.0314521137	0.0351792224	-2.62549884e-07	0.0006624	0.0013662	0.0015318	1	0	1	-360	360;
	102931425	102931432	0.0139629223	0.0147603189	-2.62549884e-07	0.0037812	0.005658	0.0062928	1	0	1	-360	360;
	102931439	102931446	0.0137820399	0.0145691066	-2.62549884e-07	0.0037812	0.005658	0.0062928	1	0	1	-360	360;
	102931530	102931537	0.101972612	0.114056475	-2.62549884e-07	0.0006624	0.0013662	0.0015318	1	0	1	-360	360;
	102932076	102932083	0.0961814143	0.107579013	-2.62549884e-07	0.0006624	0.0013662	0.0015318	1	0	1	-360	360;
	102932146	102932153	0.0969271215	0.108413088	-2.62549884e-07	0.0006624	0.0013662	0.0015318	1	0	1	-360	360;
	102932174	102932181	0.366957473	0.111718711	-2.62549884e-07	0.0009246	0.00138	0.0015456	1	0	1	-360	360;
	102932223	102932230	0.29715471	0.0904675436	-2.62549884e-07	0.0009246	0.00138	0.0015456	1	0	1	-360	360;
	102932034	102932223	2.62549884e-05	2.62549884e-05	-2.62549884e-07	6	8	10	1	0	1	-360	360;
	102932321	102932328	0.843004839	0.256649397	-2.62549884e-07	0.0009246	0.00138	0.0015456	1	0	1	-360	360;
	102932468	102932475	0.0397557422	0.0121034741	-2.62549884e-07	0.0009246	0.00138	0.0015456	1	0	1	-360	360;
	102932454	102932468	2.62549884e-05	2.62549884e-05	-2.62549884e-07	6	8	10	1	0	1	-360	360;
	102932608	102932636	0.0077564289	0.00341145251	-2.62549884e-07	0.0012282	0.0018492	0.0020562	1	0	1	-360	360;
	102932888	102932902	0.0908783233	0.0276675361	-2.62549884e-07	0.0009246	0.00138	0.0015456	1	0	1	-360	360;
	102932748	102932881	2.62549884e-05	2.62549884e-05	-2.62549884e-07	6	8	10	1	0	1	-360	360;
	102933091	102933105	0.00709334643	0.00896693448	-2.62549884e-07	0.0025944	0.0038916	0.0043332	1	0	1	-360	360;
	102933357	102933364	0.0544801482	0.0224581406	-2.62549884e-07	0.001863	0.0028014	0.003105	1	0	1	-360	360;
	102933399	102933406	0.158673633	0.0697882456	-2.62549884e-07	0.0012282	0.0018492	0.0020562	1	0	1	-360	360;
	102921205	2817886	0.0317016726	0.0212935783	-2.62549884e-07	0.001656	0.002484	0.0027738	1	0	1	-360	360;
	102921205	102921212	0.0296707802	0.0331867989	-2.62549884e-07	0.0006624	0.0013662	0.0015318	1	0	1	-360	360;
	102921331	102921338	0.0227731073	0.0254717445	-2.62549884e-07	0.0006624	0.0013662	0.0015318	1	0	1	-360	360;
	102930095	102930102	0.00780135159	0.0141689413	-2.62549884e-07	0.0035742	0.0053544	0.0059616	1	0	1	-360	360;
	102930081	102930095	2.62549884e-05	2.62549884e-05	-2.62549884e-07	6	8	10	1	0	1	-360	360;
	102930137	102930144	0.00806862783	0.01019982	-2.62549884e-07	0.0025944	0.0038916	0.0043332	1	0	1	-360	360;
	102930270	102930284	0.0112862515	0.00465248775	-2.62549884e-07	0.001863	0.0028014	0.003105	1	0	1	-360	360;
	102930459	102930473	0.0211481325	0.00930142606	-2.62549884e-07	0.0012282	0.0018492	0.0020562	1	0	1	-360	360;
	102930494	102930501	0.00485960627	0.00513712935	-2.62549884e-07	0.0037812	0.005658	0.0062928	1	0	1	-360	360;
	102930711	102930718	0.0489790761	0.0547831483	-2.62549884e-07	0.0006624	0.0013662	0.0015318	1	0	1	-360	360;
	102930837	102930844	0.025128058	0.0110518871	-2.62549884e-07	0.0012282	0.0018492	0.0020562	1	0	1	-360	360;
	102930851	102930858	0.353045147	0.10748316	-2.62549884e-07	0.0009246	0.00138	0.0015456	1	0	1	-360	360;
	102930858	102930872	0.331352753	0.100878999	-2.62549884e-07	0.0009246	0.00138	0.0015456	1	0	1	-360	360;
	102930935	102930942	0.63112908	0.192144683	-2.62549884e-07	0.0009246	0.00138	0.0015456	1	0	1	-360	360;
	102930977	102930991	0.269865561	0.0821594731	-2.62549884e-07	0.0009246	0.00138	0.0015456	1	0	1	-360	360;
	102930998	102931005	0.942609967	0.286973773	-2.62549884e-07	0.0009246	0.00138	0.0015456	1	0	1	-360	360;
	102931005	102931012	0.156527971	0.0476543046	-2.62549884e-07	0.0009246	0.00138	0.0015456	1	0	1	-360	360;
	102931012	102931019	0.313790364	0.0955322007	-2.62549884e-07	0.0009246	0.00138	0.0015456	1	0	1	-360	360;
	102930991	102930998	2.62549884e-05	2.62549884e-05	-2.62549884e-07	6	8	10	1	0	1	-360	360;
	102931075	102931082	0.00647448015	0.00114996849	-2.62549884e-07	0.001449	0.0021666	0.002415	1	0	1	-360	360;
	102931243	102931257	0.0274120004	0.0306603514	-2.62549884e-07	0.0006624	0.0013662	0.0015318	1	0	1	-360	360;
	102931313	102931404	2.62549884e-05	2.62549884e-05	-2.62549884e-07	6	8	10	1	0	1	-360	360;
	102931446	102931453	0.00485960627	0.00513712935	-2.62549884e-07	0.0037812	0.005658	0.0062928	1	0	1	-360	360;
	102931502	102931509	2.62549884e-05	2.62549884e-05	-2.62549884e-07	6	8	10	1	0	1	-360	360;
	102931796	102931810	2.62549884e-05	2.62549884e-05	-2.62549884e-07	6	8	10	1	0	1	-360	360;
	102932181	102932188	0.425090425	0.129417052	-2.62549884e-07	0.0009246	0.00138	0.0015456	1	0	1	-360	360;
	102932230	102932237	0.517721318	0.157618151	-2.62549884e-07	0.0009246	0.00138	0.0015456	1	0	1	-360	360;
	102932272	102932286	0.281794456	0.0857911767	-2.62549884e-07	0.0009246	0.00138	0.0015456	1	0	1	-360	360;
	102932300	102932335	2.62549884e-05	2.62549884e-05	-2.62549884e-07	6	8	10	1	0	1	-360	360;
	102932405	102932412	0.130148699	0.0396232424	-2.62549884e-07	0.0009246	0.00138	0.0015456	1	0	1	-360	360;
	102932475	102932489	0.031650362	0.0221452847	-2.62549884e-07	0.0016008	0.0024012	0.0026772	1	0	1	-360	360;
	102932475	102932482	0.00516603655	0.00157277883	-2.62549884e-07	0.0009246	0.00138	0.0015456	1	0	1	-360	360;
	102932510	102932517	0.0081197574	0.00568127278	-2.62549884e-07	0.0016008	0.0024012	0.0026772	1	0	1	-360	360;
	102932594	102932615	0.0240902092	0.0105954178	-2.62549884e-07	0.0012282	0.0018492	0.0020562	1	0	1	-360	360;
	102932594	102932608	0.676915498	0.206084172	-2.62549884e-07	0.0009246	0.00138	0.0015456	1	0	1	-360	360;
	102932594	102932601	0.0154486978	0.00679468599	-2.62549884e-07	0.0012282	0.0018492	0.0020562	1	0	1	-360	360;
	102932629	102932650	0.072640789	0.0319490587	-2.62549884e-07	0.0012282	0.0018492	0.0020562	1	0	1	-360	360;
	102932678	102932685	0.196708671	0.220018856	-2.62549884e-07	0.0006624	0.0013662	0.0015318	1	0	1	-360	360;
	102921142	102921135	0.0409102637	0.0274788626	-2.62549884e-07	0.001656	0.002484	0.0027738	1	0	1	-360	360;
	102921275	102921289	0.0575646956	0.0643861727	-2.62549884e-07	0.0006624	0.0013662	0.0015318	1	0	1	-360	360;
	102921303	102921310	0.021577926	0.0241349329	-2.62549884e-07	0.0006624	0.0013662	0.0015318	1	0	1	-360	360;
	102921184	102921268	2.62549884e-05	2.62549884e-05	-2.62549884e-07	6	8	10	1	0	1	-360	360;
	102921359	102921366	0.0934610829	0.10453632	-2.62549884e-07	0.0006624	0.0013662	0.0015318	1	0	1	-360	360;
	102930102	102930109	0.32018732	0.0974797282	-2.62549884e-07	0.0009246	0.00138	0.0015456	1	0	1	-360	360;
	102930116	2809717	0.0135425331	0.0171195652	-2.62549884e-07	0.0025944	0.0038916	0.0043332	1	0	1	-360	360;
	102930123	102930130	0.0151816059	0.0191915716	-2.62549884e-07	0.0025944	0.0038916	0.0043332	1	0	1	-360	360;
	102930186	102930193	0.00662467782	0.00837447494	-2.62549884e-07	0.0025944	0.0038916	0.0043332	1	0	1	-360	360;
	102930326	102930333	0.0342017175	0.0150426874	-2.62549884e-07	0.0012282	0.0018492	0.0020562	1	0	1	-360	360;
	102930466	102930480	0.0584622938	0.0257130365	-2.62549884e-07	0.0012282	0.0018492	0.0020562	1	0	1	-360	360;
	102930907	102930914	0.936398617	0.285082753	-2.62549884e-07	0.0009246	0.00138	0.0015456	1	0	1	-360	360;
	102930914	102930921	0.834968165	0.254202664	-2.62549884e-07	0.0009246	0.00138	0.0015456	1	0	1	-360	360;
	102931047	102931054	0.0556732221	0.0169494862	-2.62549884e-07	0.0009246	0.00138	0.0015456	1	0	1	-360	360;
	102931054	102931068	0.266966674	0.0812769188	-2.62549884e-07	0.0009246	0.00138	0.0015456	1	0	1	-360	360;
	102931824	102931831	0.0300537212	0.0417356405	-2.62549884e-07	0.002622	0.0039468	0.0043884	1	0	1	-360	360;
	102931831	29779738	2.62549884e-05	2.62549884e-05	-2.62549884e-07	6	8	10	1	0	1	-360	360;
	102931915	102932062	2.62549884e-05	2.62549884e-05	-2.62549884e-07	6	8	10	1	0	1	-360	360;
	102932111	102932118	0.04133303	0.0462310377	-2.62549884e-07	0.0006624	0.0013662	0.0015318	1	0	1	-360	360;
	102932041	102932195	2.62549884e-05	2.62549884e-05	-2.62549884e-07	6	8	10	1	0	1	-360	360;
	102932307	102932321	2.62549884e-05	2.62549884e-05	-2.62549884e-07	6	8	10	1	0	1	-360	360;
	102932363	102932370	0.651746602	0.198421604	-2.62549884e-07	0.0009246	0.00138	0.0015456	1	0	1	-360	360;
	102932489	102932510	2.62549884e-05	2.62549884e-05	-2.62549884e-07	6	8	10	1	0	1	-360	360;
	102932629	102932643	0.147307408	0.0647891233	-2.62549884e-07	0.0012282	0.0018492	0.0020562	1	0	1	-360	360;
	102933448	102933455	0.118942289	0.0523135035	-2.62549884e-07	0.0012282	0.0018492	0.0020562	1	0	1	-360	360;
	102933406	102933448	2.62549884e-05	2.62549884e-05	-2.62549884e-07	6	8	10	1	0	1	-360	360;
	102933497	102933511	0.0750540993	0.0330104871	-2.62549884e-07	0.0012282	0.0018492	0.0020562	1	0	1	-360	360;
	102933525	102933532	0.0997693894	0.0438808295	-2.62549884e-07	0.0012282	0.0018492	0.0020562	1	0	1	-360	360;
	102933595	102933602	0.0462019782	0.0203206729	-2.62549884e-07	0.0012282	0.0018492	0.0020562	1	0	1	-360	360;
	102933784	102933805	0.00152640779	0.00116875871	-2.62549884e-07	0.0016698	0.0025116	0.0028014	1	0	1	-360	360;
	102933903	102933910	0.179799062	0.137670759	-2.62549884e-07	0.0016698	0.0025116	0.0028014	1	0	1	-360	360;
	102933952	102933966	0.155481608	0.0473357435	-2.62549884e-07	0.0009246	0.00138	0.0015456	1	0	1	-360	360;
	102934316	102934323	0.642090066	0.195481711	-2.62549884e-07	0.0009246	0.00138	0.0015456	1	0	1	-360	360;
	102934337	102934344	0.116123375	0.0353532895	-2.62549884e-07	0.0009246	0.00138	0.0015456	1	0	1	-360	360;
	102934365	102934372	0.054331828	0.0607702069	-2.62549884e-07	0.0006624	0.0013662	0.0015318	1	0	1	-360	360;
	102934491	102934505	0.220231083	0.0670484579	-2.62549884e-07	0.0009246	0.00138	0.0015456	1	0	1	-360	360;
	102934491	102934498	0.0355001938	0.0108078897	-2.62549884e-07	0.0009246	0.00138	0.0015456	1	0	1	-360	360;
	102934547	102934554	0.506130351	0.154089328	-2.62549884e-07	0.0009246	0.00138	0.0015456	1	0	1	-360	360;
	102921254	102921261	0.0472277229	0.0194685014	-2.62549884e-07	0.001863	0.0028014	0.003105	1	0	1	-360	360;
	102921296	102921324	0.320219143	0.358165449	-2.62549884e-07	0.0006624	0.0013662	0.0015318	1	0	1	-360	360;
	102921359	102921373	0.228268864	0.255318966	-2.62549884e-07	0.0006624	0.0013662	0.0015318	1	0	1	-360	360;
	102921303	102921380	2.62549884e-05	2.62549884e-05	-2.62549884e-07	6	8	10	1	0	1	-360	360;
	102929780	102929787	0.00161131602	0.00305957265	-2.62549884e-07	0.003519	0.0052716	0.005865	1	0	1	-360	360;
	102930025	102930032	0.00328721443	0.00058386047	-2.62549884e-07	0.001449	0.0021666	0.002415	1	0	1	-360	360;
	102930270	102930291	0.00478115031	0.00505419291	-2.62549884e-07	0.0037812	0.005658	0.0062928	1	0	1	-360	360;
	102930333	102930347	0.0730533704	0.0321305213	-2.62549884e-07	0.0012282	0.0018492	0.0020562	1	0	1	-360	360;
	102930858	102930865	0.152570675	0.046449522	-2.62549884e-07	0.0009246	0.00138	0.0015456	1	0	1	-360	360;
...
];

%%-----  OPF Data  -----%%
%% generator cost data
%	1	startup	shutdown	n	x1	y1	...	xn	yn
%	2	startup	shutdown	n	c(n-1)	...	c0
mpc.gencost = [
	2	0	0	3	0.25	20	0;
];
